/*--------------------------------*- C++ -*----------------------------------*\
| =========                 |                                                 |
| \\      /  F ield         | OpenFOAM: The Open Source CFD Toolbox           |
|  \\    /   O peration     | Version:  v2112                                 |
|   \\  /    A nd           | Website:  www.openfoam.com                      |
|    \\/     M anipulation  |                                                 |
\*---------------------------------------------------------------------------*/
FoamFile
{
    version     2.0;
    format      ascii;
    class       volScalarField;
    object      k;
}
// * * * * * * * * * * * * * * * * * * * * * * * * * * * * * * * * * * * * * //

dimensions      [0 2 -2 0 0 0 0];

// k ~ 3/2 * (U*I)^2
internalField   uniform 4.5e-4;

boundaryField
{
    inlet
    {
        type            fixedValue;
        value           uniform 4.5e-4;
    }

    outlet
    {
        type            zeroGradient;
    }

    upperWall
    {
        type            zeroGradient;
        value           uniform 4.5e-4;
    }

    lowerWall
    {
        type            zeroGradient;
        value           uniform 4.5e-4;
    }

    plate
    {
        type            kqRWallFunction;
        value           uniform 4.5e-4;
    }

    frontAndBack
    {
        type            empty;
    }
}


// ************************************************************************* //
